<?xml version="1.0" encoding="UTF-8"?>

<!-- generated on 2022-04-10 15:06:35 by Eclipse SUMO GUI Version v1_12_0+1884-126832ce78c
-->

<configuration xmlns:xsi="http://www.w3.org/2001/XMLSchema-instance" xsi:noNamespaceSchemaLocation="http://sumo.dlr.de/xsd/sumoConfiguration.xsd">

    <input>
        <net-file value="simple.net.xml"/>
        <route-files value="simple.rou.xml"/>
        <additional-files value="simple.xml"/>
    </input>

</configuration>
